/*--------------------------------*- C++ -*----------------------------------*\
  =========                 |
  \\      /  F ield         | multiSpeciesRegionFoam
   \\    /   O peration     | Case:     case317-reverse-osmosis / membrane
\*---------------------------------------------------------------------------*/
FoamFile
{
    format      ascii;
    class       volScalarField;
    location    "0/membrane";
    object      T;
}
// * * * * * * * * * * * * * * * * * * * * * * * * * * * * * * * * * * * * * //

dimensions      [0 0 0 1 0 0 0];

internalField   uniform 333;

boundaryField
{
    membrane_to_feed
    {
        type        coupledTemperature;
        value       uniform 333;
    }

    membrane_outlet
    {
        type        fixedValue;
        value       uniform 333;
    }

    sides
    {
        type        empty;
    }
}

// ************************************************************************* //
