/*--------------------------------*- C++ -*----------------------------------*\
  =========                 |
  \\      /  F ield         | multiSpeciesRegionFoam
   \\    /   O peration     | Case:     case322-surface-recombination / surface_recombination / metal
\*---------------------------------------------------------------------------*/
FoamFile
{
    format      ascii;
    class       volScalarField;
    location    "0/metal";
    object      T;
}
// * * * * * * * * * * * * * * * * * * * * * * * * * * * * * * * * * * * * * //

// Isothermal at 300 K.

dimensions      [0 0 0 1 0 0 0];

internalField   uniform 300;

boundaryField
{
    metal_left
    {
        type        fixedValue;
        value       uniform 300;
    }

    metal_right
    {
        type        fixedValue;
        value       uniform 300;
    }

    sides
    {
        type        empty;
    }
}

// ************************************************************************* //
