/*--------------------------------*- C++ -*----------------------------------*\
  =========                 |
  \\      /  F ield         | multiSpeciesRegionFoam
   \\    /   O peration     | Case:     case313-trapping
\*---------------------------------------------------------------------------*/
FoamFile
{
    format      ascii;
    class       dictionary;
    object      blockMeshDict;
}
// * * * * * * * * * * * * * * * * * * * * * * * * * * * * * * * * * * * * * //

// 1-D permeation slab: L = 1 m, cross-section 1 mm × 1 mm.
// 100 cells in x (dx = 0.01 m).
//
// Hattab 2024, Section 3.1.3 — McNabb-Foster trapping, permeation geometry.
// Two trapping regimes are validated (see speciesProperties and Allrun):
//
//   (a) Weak trapping:  ε = 0.09 eV → D_eff ≈ D/29.4, τ_bc ≈ 1.5 s
//   (b) Strong trapping: ε = 1.5 eV  → τ_bd ≈ 500 s
//
// Physical parameters (all toy — dimensionally consistent but not material-specific):
//   L = 1 m,  D = 1 m²/s,  T = 1000 K
//   C_in = 5.25e-6 mol/m³,  C_out = 0
//   N = 0.0525 mol/m³,  ft = 0.1

convertToMeters 1;

vertices
(
    (0   0      0    )   // 0
    (1   0      0    )   // 1
    (1   0.001  0    )   // 2
    (0   0.001  0    )   // 3
    (0   0      0.001)   // 4
    (1   0      0.001)   // 5
    (1   0.001  0.001)   // 6
    (0   0.001  0.001)   // 7
);

blocks
(
    hex (0 1 2 3 4 5 6 7) slab (100 1 1) simpleGrading (1 1 1)
);

boundary
(
    inlet
    {
        type    patch;
        faces   ( (0 4 7 3) );
    }
    outlet
    {
        type    patch;
        faces   ( (1 2 6 5) );
    }
    sides
    {
        type    empty;
        faces
        (
            (0 1 5 4)
            (3 7 6 2)
            (0 3 2 1)
            (4 5 6 7)
        );
    }
);

// ************************************************************************* //
