/*--------------------------------*- C++ -*----------------------------------*\
  =========                 |
  \\      /  F ield         | multiSpeciesRegionFoam
   \\    /   O peration     | Case:     case317-reverse-osmosis
\*---------------------------------------------------------------------------*/
FoamFile
{
    format      ascii;
    class       dictionary;
    object      blockMeshDict;
}
// * * * * * * * * * * * * * * * * * * * * * * * * * * * * * * * * * * * * * //

// Two-region RO model: feed boundary layer + dense polymer membrane.
// Each region is 0.5 mm thick; 100 cells per region (dx = 5 µm).
//
// Case 3.1.7 — Reverse osmosis, solution-diffusion model.
//
// The solution-diffusion model partitions the permeating species (water) at
// the feed/membrane interface via Henry's law:
//   C_m = K_H · C_f       K_H = Ks_m / Ks_f = 1000/2000 = 0.5
//
// Water is less concentrated in the dense polymer than in the liquid feed,
// so K_H < 1.  The resulting concentration jump at x = 0.5 mm (from C_f,if = 2/3
// down to C_m,if = 1/3 mol/m³) is the RO rejection signature.
//
// Analytical steady state (equal D and L in both regions):
//   J_ss          = D / (3 L)  = 6.67e-7 mol/(m²·s)
//   C_f(x)        = 1 − x / 1.5e-3            [x in m, feed region]
//   C_m(x)        = 1/3 − (x − L_f) / 1.5e-3  [membrane region]
//   C_f,interface = 2/3 mol/m³  (feed side of the interface)
//   C_m,interface = 1/3 mol/m³  (membrane side — the Henry partition drop)
//
// Parameters:
//   D_feed  = D_m  = 1e-9 m²/s
//   Ks_feed = 2000 mol/m³,  Ks_m = 1000 mol/m³  (K_H = 0.5)
//   C_in    = 1 mol/m³  (feed inlet),  C_out = 0 (permeate)
//   T       = 333 K  (isothermal)

convertToMeters 1e-3;   // all coordinates in mm

vertices
(
    // Feed block
    (0     0   0)   // 0
    (0.5   0   0)   // 1
    (0.5   1   0)   // 2
    (0     1   0)   // 3
    (0     0   1)   // 4
    (0.5   0   1)   // 5
    (0.5   1   1)   // 6
    (0     1   1)   // 7

    // Membrane block (shares face at x = 0.5 mm with feed)
    (1.0   0   0)   // 8
    (1.0   1   0)   // 9
    (1.0   0   1)   // 10
    (1.0   1   1)   // 11
);

blocks
(
    hex (0 1 2 3 4 5 6 7)  feed     (100 1 1) simpleGrading (1 1 1)
    hex (1 8 9 2 5 10 11 6) membrane (100 1 1) simpleGrading (1 1 1)
);

boundary
(
    feed_inlet
    {
        type    patch;
        faces   ( (0 4 7 3) );          // x = 0  (high-pressure feed side)
    }
    membrane_outlet
    {
        type    patch;
        faces   ( (8 9 11 10) );        // x = 1 mm  (permeate side)
    }
    sides
    {
        type    empty;
        faces
        (
            (0 1 5 4)    (3 7 6 2)      // z faces, feed
            (0 3 2 1)    (4 5 6 7)      // y faces, feed
            (1 8 10 5)   (2 6 11 9)     // z faces, membrane
            (1 2 9 8)    (5 10 11 6)    // y faces, membrane
        );
    }
);

// ************************************************************************* //
