FoamFile { format ascii; class dictionary; object fvSolution; }
solvers { ".*" { solver PCG; preconditioner DIC; tolerance 1e-10; relTol 0; } }
PIMPLE { nNonOrthogonalCorrectors 0; }
