/*--------------------------------*- C++ -*----------------------------------*\
  =========                 |
  \\      /  F ield         | multiSpeciesRegionFoam
   \\    /   O peration     | Case:     case321-henry-law / henry_sieverts / polymer
\*---------------------------------------------------------------------------*/
FoamFile
{
    format      ascii;
    class       volScalarField;
    location    "0/polymer";
    object      T;
}
// * * * * * * * * * * * * * * * * * * * * * * * * * * * * * * * * * * * * * //

// Isothermal at 300 K.

dimensions      [0 0 0 1 0 0 0];

internalField   uniform 300;

boundaryField
{
    polymer_left
    {
        type        fixedValue;
        value       uniform 300;
    }

    polymer_to_metal
    {
        type        coupledTemperature;
        value       uniform 300;
    }

    sides
    {
        type        empty;
    }
}

// ************************************************************************* //
