FoamFile { format ascii; class dictionary; location "system/metal"; object fvSchemes; }
ddtSchemes      { default Euler; }
gradSchemes     { default Gauss linear; }
divSchemes      { default none; }
laplacianSchemes { default Gauss linear corrected; }
interpolationSchemes { default linear; }
snGradSchemes   { default corrected; }
