FoamFile { format ascii; class dictionary; object fvModels; }
// No fvModels for this region.
