/*--------------------------------*- C++ -*----------------------------------*\
  =========                 |
  \\      /  F ield         | multiSpeciesRegionFoam
   \\    /   O peration     | Case:     case320-shell-tube-hx
\*---------------------------------------------------------------------------*/
FoamFile
{
    format      ascii;
    class       dictionary;
    location    "constant";
    object      regionProperties;
}
// * * * * * * * * * * * * * * * * * * * * * * * * * * * * * * * * * * * * * //

regions
(
    solid (flibe wall hitec)
);

// ************************************************************************* //
