/*--------------------------------*- C++ -*----------------------------------*\
  =========                 |
  \\      /  F ield         | multiSpeciesRegionFoam
   \\    /   O peration     | Case:     case314-composite-membrane
\*---------------------------------------------------------------------------*/
FoamFile
{
    format      ascii;
    class       dictionary;
    object      blockMeshDict;
}
// * * * * * * * * * * * * * * * * * * * * * * * * * * * * * * * * * * * * * //

// Two-region composite membrane: PyC (x in [0, 0.5mm]) + SiC (x in [0.5, 1.5mm])
//
// Steady-state analytical check (Hattab 3.1.4, Sieverts linear partition):
//   D_pyc = D_sic = D = 1e-9 m²/s
//   Ks_pyc / Ks_sic = r = 2
//   L_pyc = L_sic = L = 0.5 mm
//   C_in = 1 mol/m³ (PyC inlet), C_out = 0 (SiC outlet)
//
//   C_sic_interface = C_in / (1 + r) = 1/3 mol/m³
//   C_pyc_interface = r * C_sic_interface = 2/3 mol/m³
//   Flux J = D * C_sic_interface / L = 6.67e-7 mol/(m²·s)

convertToMeters 1e-3;  // all coords in mm

// x = 0    PyC inlet  (high-pressure face)
// x = 0.5  PyC/SiC interface
// x = 1.0  SiC outlet (vacuum face)
// L_pyc = L_sic = 0.5 mm  → symmetric geometry matching the analytical solution

vertices
(
    //  PyC block
    (0    0   0)   // 0
    (0.5  0   0)   // 1
    (0.5  1   0)   // 2
    (0    1   0)   // 3
    (0    0   1)   // 4
    (0.5  0   1)   // 5
    (0.5  1   1)   // 6
    (0    1   1)   // 7

    //  SiC block (shares face at x=0.5 with PyC)
    (1.0  0   0)   // 8
    (1.0  1   0)   // 9
    (1.0  0   1)   // 10
    (1.0  1   1)   // 11
);

blocks
(
    hex (0 1 2 3 4 5 6 7) pyc (100 1 1) simpleGrading (1 1 1)
    hex (1 8 9 2 5 10 11 6) sic (100 1 1) simpleGrading (1 1 1)
);

boundary
(
    pyc_inlet
    {
        type    patch;
        faces   ( (0 4 7 3) );       // x = 0
    }
    sic_outlet
    {
        type    patch;
        faces   ( (8 9 11 10) );     // x = 1.0 mm
    }
    sides
    {
        type    empty;
        faces
        (
            (0 1 5 4)    (3 7 6 2)   // z faces PyC
            (0 3 2 1)    (4 5 6 7)   // y faces PyC
            (1 8 10 5)   (2 6 11 9)  // z faces SiC
            (1 2 9 8)    (5 10 11 6) // y faces SiC
        );
    }
);

// ************************************************************************* //
