/*--------------------------------*- C++ -*----------------------------------*\
  =========                 |
  \\      /  F ield         | OpenFOAM: The Open Source CFD Toolbox
   \\    /   O peration     | Website:  https://openfoam.org
    \\  /    A nd           | Version:  13
     \\/     M anipulation  |
\*---------------------------------------------------------------------------*/
FoamFile
{
    format      ascii;
    class       polyBoundaryMesh;
    location    "constant/sic/polyMesh";
    object      boundary;
}
// * * * * * * * * * * * * * * * * * * * * * * * * * * * * * * * * * * * * * //

3
(
    sic_outlet
    {
        type            patch;
        nFaces          1;
        startFace       99;
    }
    sides
    {
        type            empty;
        inGroups        List<word> 1(empty);
        nFaces          400;
        startFace       100;
    }
    sic_to_pyc
    {
        type            mappedWall;
        inGroups        List<word> 
2
(
wall
mapped
)
;
        nFaces          1;
        startFace       500;
        neighbourRegion pyc;
        neighbourPatch  pyc_to_sic;
        transformType   none;
    }
)

// ************************************************************************* //
