FoamFile { format ascii; class dictionary; object regionProperties; }
regions  ( solid ( polymer metal ) );
