/*--------------------------------*- C++ -*----------------------------------*\
  =========                 |
  \\      /  F ield         | multiSpeciesRegionFoam
   \\    /   O peration     | Case:     case311-slab-diffusion
\*---------------------------------------------------------------------------*/
FoamFile
{
    format      ascii;
    class       dictionary;
    object      blockMeshDict;
}
// * * * * * * * * * * * * * * * * * * * * * * * * * * * * * * * * * * * * * //

// 1-D SiC slab: 1 mm long, 1 mm x 1 mm cross-section
// 200 cells in x (diffusion direction), 1 x 1 transverse
// Used as a thermal proxy for species diffusion: T [K] ~ C [mol/m3]

convertToMeters 1e-3;  // all coordinates in mm

vertices
(
    (0   0   0)
    (1   0   0)
    (1   1   0)
    (0   1   0)
    (0   0   1)
    (1   0   1)
    (1   1   1)
    (0   1   1)
);

blocks
(
    // label the block "slab" so splitMeshRegions creates region "slab"
    hex (0 1 2 3 4 5 6 7) slab (200 1 1) simpleGrading (1 1 1)
);

boundary
(
    inlet
    {
        type    patch;
        faces   ( (0 4 7 3) );   // x = 0 face
    }
    outlet
    {
        type    patch;
        faces   ( (1 2 6 5) );   // x = L face
    }
    sides
    {
        type    empty;
        faces
        (
            (0 1 5 4)    // z = 0
            (3 7 6 2)    // z = 1 mm
            (0 3 2 1)    // y = 0
            (4 5 6 7)    // y = 1 mm
        );
    }
);

// ************************************************************************* //
