/*--------------------------------*- C++ -*----------------------------------*\
  =========                 |
  \\      /  F ield         | multiSpeciesRegionFoam
   \\    /   O peration     | Case:     case323-counterflow-hx
\*---------------------------------------------------------------------------*/
FoamFile
{
    format      ascii;
    class       dictionary;
    object      regionProperties;
}
// * * * * * * * * * * * * * * * * * * * * * * * * * * * * * * * * * * * * * //

regions
(
    flibe
    wall
    hitec
);

// ************************************************************************* //
